
---------- Begin Simulation Statistics ----------
sim_seconds                                  0.000073                       # Number of seconds simulated
sim_ticks                                    72617500                       # Number of ticks simulated
final_tick                                   72617500                       # Number of ticks from beginning of simulation (restored from checkpoints and never reset)
sim_freq                                 1000000000000                       # Frequency of simulated ticks
host_inst_rate                                 140888                       # Simulator instruction rate (inst/s)
host_op_rate                                   163081                       # Simulator op (including micro ops) rate (op/s)
host_tick_rate                               68726348                       # Simulator tick rate (ticks/s)
host_mem_usage                                 801896                       # Number of bytes of host memory used
host_seconds                                     1.06                       # Real time elapsed on the host
sim_insts                                      148861                       # Number of instructions simulated
sim_ops                                        172313                       # Number of ops (including micro ops) simulated
system.voltage_domain.voltage                       1                       # Voltage in Volts
system.clk_domain.clock                          1000                       # Clock period in ticks
system.mem_ctrls.pwrStateResidencyTicks::UNDEFINED     72617500                       # Cumulative time (in ticks) in various power states
system.mem_ctrls.bytes_read::cpu.inst          115776                       # Number of bytes read from this memory
system.mem_ctrls.bytes_read::cpu.data           49152                       # Number of bytes read from this memory
system.mem_ctrls.bytes_read::total             164928                       # Number of bytes read from this memory
system.mem_ctrls.bytes_inst_read::cpu.inst       115776                       # Number of instructions bytes read from this memory
system.mem_ctrls.bytes_inst_read::total        115776                       # Number of instructions bytes read from this memory
system.mem_ctrls.num_reads::cpu.inst             1809                       # Number of read requests responded to by this memory
system.mem_ctrls.num_reads::cpu.data              768                       # Number of read requests responded to by this memory
system.mem_ctrls.num_reads::total                2577                       # Number of read requests responded to by this memory
system.mem_ctrls.bw_read::cpu.inst         1594326436                       # Total read bandwidth from this memory (bytes/s)
system.mem_ctrls.bw_read::cpu.data          676861638                       # Total read bandwidth from this memory (bytes/s)
system.mem_ctrls.bw_read::total            2271188074                       # Total read bandwidth from this memory (bytes/s)
system.mem_ctrls.bw_inst_read::cpu.inst    1594326436                       # Instruction read bandwidth from this memory (bytes/s)
system.mem_ctrls.bw_inst_read::total       1594326436                       # Instruction read bandwidth from this memory (bytes/s)
system.mem_ctrls.bw_total::cpu.inst        1594326436                       # Total bandwidth to/from this memory (bytes/s)
system.mem_ctrls.bw_total::cpu.data         676861638                       # Total bandwidth to/from this memory (bytes/s)
system.mem_ctrls.bw_total::total           2271188074                       # Total bandwidth to/from this memory (bytes/s)
system.mem_ctrls.readReqs                        2577                       # Number of read requests accepted
system.mem_ctrls.writeReqs                          0                       # Number of write requests accepted
system.mem_ctrls.readBursts                      2577                       # Number of DRAM read bursts, including those serviced by the write queue
system.mem_ctrls.writeBursts                        0                       # Number of DRAM write bursts, including those merged in the write queue
system.mem_ctrls.bytesReadDRAM                 164928                       # Total number of bytes read from DRAM
system.mem_ctrls.bytesReadWrQ                       0                       # Total number of bytes read from write queue
system.mem_ctrls.bytesWritten                       0                       # Total number of bytes written to DRAM
system.mem_ctrls.bytesReadSys                  164928                       # Total read bytes from the system interface side
system.mem_ctrls.bytesWrittenSys                    0                       # Total written bytes from the system interface side
system.mem_ctrls.servicedByWrQ                      0                       # Number of DRAM read bursts serviced by the write queue
system.mem_ctrls.mergedWrBursts                     0                       # Number of DRAM write bursts merged with an existing one
system.mem_ctrls.neitherReadNorWriteReqs            0                       # Number of requests that are neither read nor write
system.mem_ctrls.perBankRdBursts::0               165                       # Per bank write bursts
system.mem_ctrls.perBankRdBursts::1               177                       # Per bank write bursts
system.mem_ctrls.perBankRdBursts::2               165                       # Per bank write bursts
system.mem_ctrls.perBankRdBursts::3               186                       # Per bank write bursts
system.mem_ctrls.perBankRdBursts::4               180                       # Per bank write bursts
system.mem_ctrls.perBankRdBursts::5               139                       # Per bank write bursts
system.mem_ctrls.perBankRdBursts::6               151                       # Per bank write bursts
system.mem_ctrls.perBankRdBursts::7               133                       # Per bank write bursts
system.mem_ctrls.perBankRdBursts::8               135                       # Per bank write bursts
system.mem_ctrls.perBankRdBursts::9               126                       # Per bank write bursts
system.mem_ctrls.perBankRdBursts::10              187                       # Per bank write bursts
system.mem_ctrls.perBankRdBursts::11              198                       # Per bank write bursts
system.mem_ctrls.perBankRdBursts::12              171                       # Per bank write bursts
system.mem_ctrls.perBankRdBursts::13              210                       # Per bank write bursts
system.mem_ctrls.perBankRdBursts::14              136                       # Per bank write bursts
system.mem_ctrls.perBankRdBursts::15              118                       # Per bank write bursts
system.mem_ctrls.perBankWrBursts::0                 0                       # Per bank write bursts
system.mem_ctrls.perBankWrBursts::1                 0                       # Per bank write bursts
system.mem_ctrls.perBankWrBursts::2                 0                       # Per bank write bursts
system.mem_ctrls.perBankWrBursts::3                 0                       # Per bank write bursts
system.mem_ctrls.perBankWrBursts::4                 0                       # Per bank write bursts
system.mem_ctrls.perBankWrBursts::5                 0                       # Per bank write bursts
system.mem_ctrls.perBankWrBursts::6                 0                       # Per bank write bursts
system.mem_ctrls.perBankWrBursts::7                 0                       # Per bank write bursts
system.mem_ctrls.perBankWrBursts::8                 0                       # Per bank write bursts
system.mem_ctrls.perBankWrBursts::9                 0                       # Per bank write bursts
system.mem_ctrls.perBankWrBursts::10                0                       # Per bank write bursts
system.mem_ctrls.perBankWrBursts::11                0                       # Per bank write bursts
system.mem_ctrls.perBankWrBursts::12                0                       # Per bank write bursts
system.mem_ctrls.perBankWrBursts::13                0                       # Per bank write bursts
system.mem_ctrls.perBankWrBursts::14                0                       # Per bank write bursts
system.mem_ctrls.perBankWrBursts::15                0                       # Per bank write bursts
system.mem_ctrls.numRdRetry                         0                       # Number of times read queue was full causing retry
system.mem_ctrls.numWrRetry                         0                       # Number of times write queue was full causing retry
system.mem_ctrls.totGap                      72503000                       # Total gap between requests
system.mem_ctrls.readPktSize::0                     0                       # Read request sizes (log2)
system.mem_ctrls.readPktSize::1                     0                       # Read request sizes (log2)
system.mem_ctrls.readPktSize::2                     0                       # Read request sizes (log2)
system.mem_ctrls.readPktSize::3                     0                       # Read request sizes (log2)
system.mem_ctrls.readPktSize::4                     0                       # Read request sizes (log2)
system.mem_ctrls.readPktSize::5                     0                       # Read request sizes (log2)
system.mem_ctrls.readPktSize::6                  2577                       # Read request sizes (log2)
system.mem_ctrls.writePktSize::0                    0                       # Write request sizes (log2)
system.mem_ctrls.writePktSize::1                    0                       # Write request sizes (log2)
system.mem_ctrls.writePktSize::2                    0                       # Write request sizes (log2)
system.mem_ctrls.writePktSize::3                    0                       # Write request sizes (log2)
system.mem_ctrls.writePktSize::4                    0                       # Write request sizes (log2)
system.mem_ctrls.writePktSize::5                    0                       # Write request sizes (log2)
system.mem_ctrls.writePktSize::6                    0                       # Write request sizes (log2)
system.mem_ctrls.rdQLenPdf::0                     489                       # What read queue length does an incoming req see
system.mem_ctrls.rdQLenPdf::1                     676                       # What read queue length does an incoming req see
system.mem_ctrls.rdQLenPdf::2                     612                       # What read queue length does an incoming req see
system.mem_ctrls.rdQLenPdf::3                     417                       # What read queue length does an incoming req see
system.mem_ctrls.rdQLenPdf::4                     230                       # What read queue length does an incoming req see
system.mem_ctrls.rdQLenPdf::5                     113                       # What read queue length does an incoming req see
system.mem_ctrls.rdQLenPdf::6                      33                       # What read queue length does an incoming req see
system.mem_ctrls.rdQLenPdf::7                       7                       # What read queue length does an incoming req see
system.mem_ctrls.rdQLenPdf::8                       0                       # What read queue length does an incoming req see
system.mem_ctrls.rdQLenPdf::9                       0                       # What read queue length does an incoming req see
system.mem_ctrls.rdQLenPdf::10                      0                       # What read queue length does an incoming req see
system.mem_ctrls.rdQLenPdf::11                      0                       # What read queue length does an incoming req see
system.mem_ctrls.rdQLenPdf::12                      0                       # What read queue length does an incoming req see
system.mem_ctrls.rdQLenPdf::13                      0                       # What read queue length does an incoming req see
system.mem_ctrls.rdQLenPdf::14                      0                       # What read queue length does an incoming req see
system.mem_ctrls.rdQLenPdf::15                      0                       # What read queue length does an incoming req see
system.mem_ctrls.rdQLenPdf::16                      0                       # What read queue length does an incoming req see
system.mem_ctrls.rdQLenPdf::17                      0                       # What read queue length does an incoming req see
system.mem_ctrls.rdQLenPdf::18                      0                       # What read queue length does an incoming req see
system.mem_ctrls.rdQLenPdf::19                      0                       # What read queue length does an incoming req see
system.mem_ctrls.rdQLenPdf::20                      0                       # What read queue length does an incoming req see
system.mem_ctrls.rdQLenPdf::21                      0                       # What read queue length does an incoming req see
system.mem_ctrls.rdQLenPdf::22                      0                       # What read queue length does an incoming req see
system.mem_ctrls.rdQLenPdf::23                      0                       # What read queue length does an incoming req see
system.mem_ctrls.rdQLenPdf::24                      0                       # What read queue length does an incoming req see
system.mem_ctrls.rdQLenPdf::25                      0                       # What read queue length does an incoming req see
system.mem_ctrls.rdQLenPdf::26                      0                       # What read queue length does an incoming req see
system.mem_ctrls.rdQLenPdf::27                      0                       # What read queue length does an incoming req see
system.mem_ctrls.rdQLenPdf::28                      0                       # What read queue length does an incoming req see
system.mem_ctrls.rdQLenPdf::29                      0                       # What read queue length does an incoming req see
system.mem_ctrls.rdQLenPdf::30                      0                       # What read queue length does an incoming req see
system.mem_ctrls.rdQLenPdf::31                      0                       # What read queue length does an incoming req see
system.mem_ctrls.wrQLenPdf::0                       0                       # What write queue length does an incoming req see
system.mem_ctrls.wrQLenPdf::1                       0                       # What write queue length does an incoming req see
system.mem_ctrls.wrQLenPdf::2                       0                       # What write queue length does an incoming req see
system.mem_ctrls.wrQLenPdf::3                       0                       # What write queue length does an incoming req see
system.mem_ctrls.wrQLenPdf::4                       0                       # What write queue length does an incoming req see
system.mem_ctrls.wrQLenPdf::5                       0                       # What write queue length does an incoming req see
system.mem_ctrls.wrQLenPdf::6                       0                       # What write queue length does an incoming req see
system.mem_ctrls.wrQLenPdf::7                       0                       # What write queue length does an incoming req see
system.mem_ctrls.wrQLenPdf::8                       0                       # What write queue length does an incoming req see
system.mem_ctrls.wrQLenPdf::9                       0                       # What write queue length does an incoming req see
system.mem_ctrls.wrQLenPdf::10                      0                       # What write queue length does an incoming req see
system.mem_ctrls.wrQLenPdf::11                      0                       # What write queue length does an incoming req see
system.mem_ctrls.wrQLenPdf::12                      0                       # What write queue length does an incoming req see
system.mem_ctrls.wrQLenPdf::13                      0                       # What write queue length does an incoming req see
system.mem_ctrls.wrQLenPdf::14                      0                       # What write queue length does an incoming req see
system.mem_ctrls.wrQLenPdf::15                      0                       # What write queue length does an incoming req see
system.mem_ctrls.wrQLenPdf::16                      0                       # What write queue length does an incoming req see
system.mem_ctrls.wrQLenPdf::17                      0                       # What write queue length does an incoming req see
system.mem_ctrls.wrQLenPdf::18                      0                       # What write queue length does an incoming req see
system.mem_ctrls.wrQLenPdf::19                      0                       # What write queue length does an incoming req see
system.mem_ctrls.wrQLenPdf::20                      0                       # What write queue length does an incoming req see
system.mem_ctrls.wrQLenPdf::21                      0                       # What write queue length does an incoming req see
system.mem_ctrls.wrQLenPdf::22                      0                       # What write queue length does an incoming req see
system.mem_ctrls.wrQLenPdf::23                      0                       # What write queue length does an incoming req see
system.mem_ctrls.wrQLenPdf::24                      0                       # What write queue length does an incoming req see
system.mem_ctrls.wrQLenPdf::25                      0                       # What write queue length does an incoming req see
system.mem_ctrls.wrQLenPdf::26                      0                       # What write queue length does an incoming req see
system.mem_ctrls.wrQLenPdf::27                      0                       # What write queue length does an incoming req see
system.mem_ctrls.wrQLenPdf::28                      0                       # What write queue length does an incoming req see
system.mem_ctrls.wrQLenPdf::29                      0                       # What write queue length does an incoming req see
system.mem_ctrls.wrQLenPdf::30                      0                       # What write queue length does an incoming req see
system.mem_ctrls.wrQLenPdf::31                      0                       # What write queue length does an incoming req see
system.mem_ctrls.wrQLenPdf::32                      0                       # What write queue length does an incoming req see
system.mem_ctrls.wrQLenPdf::33                      0                       # What write queue length does an incoming req see
system.mem_ctrls.wrQLenPdf::34                      0                       # What write queue length does an incoming req see
system.mem_ctrls.wrQLenPdf::35                      0                       # What write queue length does an incoming req see
system.mem_ctrls.wrQLenPdf::36                      0                       # What write queue length does an incoming req see
system.mem_ctrls.wrQLenPdf::37                      0                       # What write queue length does an incoming req see
system.mem_ctrls.wrQLenPdf::38                      0                       # What write queue length does an incoming req see
system.mem_ctrls.wrQLenPdf::39                      0                       # What write queue length does an incoming req see
system.mem_ctrls.wrQLenPdf::40                      0                       # What write queue length does an incoming req see
system.mem_ctrls.wrQLenPdf::41                      0                       # What write queue length does an incoming req see
system.mem_ctrls.wrQLenPdf::42                      0                       # What write queue length does an incoming req see
system.mem_ctrls.wrQLenPdf::43                      0                       # What write queue length does an incoming req see
system.mem_ctrls.wrQLenPdf::44                      0                       # What write queue length does an incoming req see
system.mem_ctrls.wrQLenPdf::45                      0                       # What write queue length does an incoming req see
system.mem_ctrls.wrQLenPdf::46                      0                       # What write queue length does an incoming req see
system.mem_ctrls.wrQLenPdf::47                      0                       # What write queue length does an incoming req see
system.mem_ctrls.wrQLenPdf::48                      0                       # What write queue length does an incoming req see
system.mem_ctrls.wrQLenPdf::49                      0                       # What write queue length does an incoming req see
system.mem_ctrls.wrQLenPdf::50                      0                       # What write queue length does an incoming req see
system.mem_ctrls.wrQLenPdf::51                      0                       # What write queue length does an incoming req see
system.mem_ctrls.wrQLenPdf::52                      0                       # What write queue length does an incoming req see
system.mem_ctrls.wrQLenPdf::53                      0                       # What write queue length does an incoming req see
system.mem_ctrls.wrQLenPdf::54                      0                       # What write queue length does an incoming req see
system.mem_ctrls.wrQLenPdf::55                      0                       # What write queue length does an incoming req see
system.mem_ctrls.wrQLenPdf::56                      0                       # What write queue length does an incoming req see
system.mem_ctrls.wrQLenPdf::57                      0                       # What write queue length does an incoming req see
system.mem_ctrls.wrQLenPdf::58                      0                       # What write queue length does an incoming req see
system.mem_ctrls.wrQLenPdf::59                      0                       # What write queue length does an incoming req see
system.mem_ctrls.wrQLenPdf::60                      0                       # What write queue length does an incoming req see
system.mem_ctrls.wrQLenPdf::61                      0                       # What write queue length does an incoming req see
system.mem_ctrls.wrQLenPdf::62                      0                       # What write queue length does an incoming req see
system.mem_ctrls.wrQLenPdf::63                      0                       # What write queue length does an incoming req see
system.mem_ctrls.bytesPerActivate::samples          894                       # Bytes accessed per row activation
system.mem_ctrls.bytesPerActivate::mean    181.476510                       # Bytes accessed per row activation
system.mem_ctrls.bytesPerActivate::gmean   123.525085                       # Bytes accessed per row activation
system.mem_ctrls.bytesPerActivate::stdev   208.863922                       # Bytes accessed per row activation
system.mem_ctrls.bytesPerActivate::0-127          434     48.55%     48.55% # Bytes accessed per row activation
system.mem_ctrls.bytesPerActivate::128-255          268     29.98%     78.52% # Bytes accessed per row activation
system.mem_ctrls.bytesPerActivate::256-383           91     10.18%     88.70% # Bytes accessed per row activation
system.mem_ctrls.bytesPerActivate::384-511           28      3.13%     91.83% # Bytes accessed per row activation
system.mem_ctrls.bytesPerActivate::512-639           22      2.46%     94.30% # Bytes accessed per row activation
system.mem_ctrls.bytesPerActivate::640-767           12      1.34%     95.64% # Bytes accessed per row activation
system.mem_ctrls.bytesPerActivate::768-895            7      0.78%     96.42% # Bytes accessed per row activation
system.mem_ctrls.bytesPerActivate::896-1023            6      0.67%     97.09% # Bytes accessed per row activation
system.mem_ctrls.bytesPerActivate::1024-1151           26      2.91%    100.00% # Bytes accessed per row activation
system.mem_ctrls.bytesPerActivate::total          894                       # Bytes accessed per row activation
system.mem_ctrls.totQLat                     67738000                       # Total ticks spent queuing
system.mem_ctrls.totMemAccLat               116056750                       # Total ticks spent from burst creation until serviced by the DRAM
system.mem_ctrls.totBusLat                   12885000                       # Total ticks spent in databus transfers
system.mem_ctrls.avgQLat                     26285.60                       # Average queueing delay per DRAM burst
system.mem_ctrls.avgBusLat                    5000.00                       # Average bus latency per DRAM burst
system.mem_ctrls.avgMemAccLat                45035.60                       # Average memory access latency per DRAM burst
system.mem_ctrls.avgRdBW                      2271.19                       # Average DRAM read bandwidth in MiByte/s
system.mem_ctrls.avgWrBW                         0.00                       # Average achieved write bandwidth in MiByte/s
system.mem_ctrls.avgRdBWSys                   2271.19                       # Average system read bandwidth in MiByte/s
system.mem_ctrls.avgWrBWSys                      0.00                       # Average system write bandwidth in MiByte/s
system.mem_ctrls.peakBW                      12800.00                       # Theoretical peak bandwidth in MiByte/s
system.mem_ctrls.busUtil                        17.74                       # Data bus utilization in percentage
system.mem_ctrls.busUtilRead                    17.74                       # Data bus utilization in percentage for reads
system.mem_ctrls.busUtilWrite                    0.00                       # Data bus utilization in percentage for writes
system.mem_ctrls.avgRdQLen                       2.75                       # Average read queue length when enqueuing
system.mem_ctrls.avgWrQLen                       0.00                       # Average write queue length when enqueuing
system.mem_ctrls.readRowHits                     1667                       # Number of row buffer hits during reads
system.mem_ctrls.writeRowHits                       0                       # Number of row buffer hits during writes
system.mem_ctrls.readRowHitRate                 64.69                       # Row buffer hit rate for reads
system.mem_ctrls.writeRowHitRate                  nan                       # Row buffer hit rate for writes
system.mem_ctrls.avgGap                      28134.65                       # Average gap between requests
system.mem_ctrls.pageHitRate                    64.69                       # Row buffer hit rate, read and write combined
system.mem_ctrls_0.actEnergy                  3334380                       # Energy for activate commands per rank (pJ)
system.mem_ctrls_0.preEnergy                  1741905                       # Energy for precharge commands per rank (pJ)
system.mem_ctrls_0.readEnergy                 9253440                       # Energy for read commands per rank (pJ)
system.mem_ctrls_0.writeEnergy                      0                       # Energy for write commands per rank (pJ)
system.mem_ctrls_0.refreshEnergy         5531760.000000                       # Energy for refresh commands per rank (pJ)
system.mem_ctrls_0.actBackEnergy             15609450                       # Energy for active background per rank (pJ)
system.mem_ctrls_0.preBackEnergy               197760                       # Energy for precharge background per rank (pJ)
system.mem_ctrls_0.actPowerDownEnergy        11394870                       # Energy for active power-down per rank (pJ)
system.mem_ctrls_0.prePowerDownEnergy         2882880                       # Energy for precharge power-down per rank (pJ)
system.mem_ctrls_0.selfRefreshEnergy          1842240                       # Energy for self refresh per rank (pJ)
system.mem_ctrls_0.totalEnergy               51788685                       # Total energy per rank (pJ)
system.mem_ctrls_0.averagePower            713.170861                       # Core power per rank (mW)
system.mem_ctrls_0.totalIdleTime             37640000                       # Total Idle time Per DRAM Rank
system.mem_ctrls_0.memoryStateTime::IDLE       287500                       # Time in different power states
system.mem_ctrls_0.memoryStateTime::REF       2346000                       # Time in different power states
system.mem_ctrls_0.memoryStateTime::SREF      5374750                       # Time in different power states
system.mem_ctrls_0.memoryStateTime::PRE_PDN      7507750                       # Time in different power states
system.mem_ctrls_0.memoryStateTime::ACT      32116000                       # Time in different power states
system.mem_ctrls_0.memoryStateTime::ACT_PDN     24985500                       # Time in different power states
system.mem_ctrls_1.actEnergy                  3163020                       # Energy for activate commands per rank (pJ)
system.mem_ctrls_1.preEnergy                  1650825                       # Energy for precharge commands per rank (pJ)
system.mem_ctrls_1.readEnergy                 9146340                       # Energy for read commands per rank (pJ)
system.mem_ctrls_1.writeEnergy                      0                       # Energy for write commands per rank (pJ)
system.mem_ctrls_1.refreshEnergy         5531760.000000                       # Energy for refresh commands per rank (pJ)
system.mem_ctrls_1.actBackEnergy             15318180                       # Energy for active background per rank (pJ)
system.mem_ctrls_1.preBackEnergy               198240                       # Energy for precharge background per rank (pJ)
system.mem_ctrls_1.actPowerDownEnergy        11891340                       # Energy for active power-down per rank (pJ)
system.mem_ctrls_1.prePowerDownEnergy         2882880                       # Energy for precharge power-down per rank (pJ)
system.mem_ctrls_1.selfRefreshEnergy          1733940                       # Energy for self refresh per rank (pJ)
system.mem_ctrls_1.totalEnergy               51516525                       # Total energy per rank (pJ)
system.mem_ctrls_1.averagePower            709.423004                       # Core power per rank (mW)
system.mem_ctrls_1.totalIdleTime             38448250                       # Total Idle time Per DRAM Rank
system.mem_ctrls_1.memoryStateTime::IDLE       290000                       # Time in different power states
system.mem_ctrls_1.memoryStateTime::REF       2346000                       # Time in different power states
system.mem_ctrls_1.memoryStateTime::SREF      4923250                       # Time in different power states
system.mem_ctrls_1.memoryStateTime::PRE_PDN      7507750                       # Time in different power states
system.mem_ctrls_1.memoryStateTime::ACT      31485500                       # Time in different power states
system.mem_ctrls_1.memoryStateTime::ACT_PDN     26065000                       # Time in different power states
system.pwrStateResidencyTicks::UNDEFINED     72617500                       # Cumulative time (in ticks) in various power states
system.cpu.branchPred.lookups                   29304                       # Number of BP lookups
system.cpu.branchPred.condPredicted             21019                       # Number of conditional branches predicted
system.cpu.branchPred.condIncorrect              2691                       # Number of conditional branches incorrect
system.cpu.branchPred.BTBLookups                17847                       # Number of BTB lookups
system.cpu.branchPred.BTBHits                   11870                       # Number of BTB hits
system.cpu.branchPred.BTBCorrect                    0                       # Number of correct BTB predictions (this stat may not work properly.
system.cpu.branchPred.BTBHitPct             66.509778                       # BTB Hit Percentage
system.cpu.branchPred.usedRAS                    3344                       # Number of times the RAS was used to get a target.
system.cpu.branchPred.RASInCorrect                185                       # Number of incorrect RAS predictions.
system.cpu.branchPred.indirectLookups             596                       # Number of indirect predictor lookups.
system.cpu.branchPred.indirectHits                278                       # Number of indirect target hits.
system.cpu.branchPred.indirectMisses              318                       # Number of indirect misses.
system.cpu.branchPredindirectMispredicted          124                       # Number of mispredicted indirect branches.
system.cpu_voltage_domain.voltage                   1                       # Voltage in Volts
system.cpu_clk_domain.clock                       500                       # Clock period in ticks
system.cpu.dstage2_mmu.stage2_tlb.walker.pwrStateResidencyTicks::UNDEFINED     72617500                       # Cumulative time (in ticks) in various power states
system.cpu.dstage2_mmu.stage2_tlb.walker.walks            0                       # Table walker walks requested
system.cpu.dstage2_mmu.stage2_tlb.walker.walkRequestOrigin_Requested::Data            0                       # Table walker requests started/completed, data/inst
system.cpu.dstage2_mmu.stage2_tlb.walker.walkRequestOrigin_Requested::Inst            0                       # Table walker requests started/completed, data/inst
system.cpu.dstage2_mmu.stage2_tlb.walker.walkRequestOrigin_Requested::total            0                       # Table walker requests started/completed, data/inst
system.cpu.dstage2_mmu.stage2_tlb.walker.walkRequestOrigin_Completed::Data            0                       # Table walker requests started/completed, data/inst
system.cpu.dstage2_mmu.stage2_tlb.walker.walkRequestOrigin_Completed::Inst            0                       # Table walker requests started/completed, data/inst
system.cpu.dstage2_mmu.stage2_tlb.walker.walkRequestOrigin_Completed::total            0                       # Table walker requests started/completed, data/inst
system.cpu.dstage2_mmu.stage2_tlb.walker.walkRequestOrigin::total            0                       # Table walker requests started/completed, data/inst
system.cpu.dstage2_mmu.stage2_tlb.inst_hits            0                       # ITB inst hits
system.cpu.dstage2_mmu.stage2_tlb.inst_misses            0                       # ITB inst misses
system.cpu.dstage2_mmu.stage2_tlb.read_hits            0                       # DTB read hits
system.cpu.dstage2_mmu.stage2_tlb.read_misses            0                       # DTB read misses
system.cpu.dstage2_mmu.stage2_tlb.write_hits            0                       # DTB write hits
system.cpu.dstage2_mmu.stage2_tlb.write_misses            0                       # DTB write misses
system.cpu.dstage2_mmu.stage2_tlb.flush_tlb            0                       # Number of times complete TLB was flushed
system.cpu.dstage2_mmu.stage2_tlb.flush_tlb_mva            0                       # Number of times TLB was flushed by MVA
system.cpu.dstage2_mmu.stage2_tlb.flush_tlb_mva_asid            0                       # Number of times TLB was flushed by MVA & ASID
system.cpu.dstage2_mmu.stage2_tlb.flush_tlb_asid            0                       # Number of times TLB was flushed by ASID
system.cpu.dstage2_mmu.stage2_tlb.flush_entries            0                       # Number of entries that have been flushed from TLB
system.cpu.dstage2_mmu.stage2_tlb.align_faults            0                       # Number of TLB faults due to alignment restrictions
system.cpu.dstage2_mmu.stage2_tlb.prefetch_faults            0                       # Number of TLB faults due to prefetch
system.cpu.dstage2_mmu.stage2_tlb.domain_faults            0                       # Number of TLB faults due to domain restrictions
system.cpu.dstage2_mmu.stage2_tlb.perms_faults            0                       # Number of TLB faults due to permissions restrictions
system.cpu.dstage2_mmu.stage2_tlb.read_accesses            0                       # DTB read accesses
system.cpu.dstage2_mmu.stage2_tlb.write_accesses            0                       # DTB write accesses
system.cpu.dstage2_mmu.stage2_tlb.inst_accesses            0                       # ITB inst accesses
system.cpu.dstage2_mmu.stage2_tlb.hits              0                       # DTB hits
system.cpu.dstage2_mmu.stage2_tlb.misses            0                       # DTB misses
system.cpu.dstage2_mmu.stage2_tlb.accesses            0                       # DTB accesses
system.cpu.dtb.walker.pwrStateResidencyTicks::UNDEFINED     72617500                       # Cumulative time (in ticks) in various power states
system.cpu.dtb.walker.walks                         0                       # Table walker walks requested
system.cpu.dtb.walker.walkRequestOrigin_Requested::Data            0                       # Table walker requests started/completed, data/inst
system.cpu.dtb.walker.walkRequestOrigin_Requested::Inst            0                       # Table walker requests started/completed, data/inst
system.cpu.dtb.walker.walkRequestOrigin_Requested::total            0                       # Table walker requests started/completed, data/inst
system.cpu.dtb.walker.walkRequestOrigin_Completed::Data            0                       # Table walker requests started/completed, data/inst
system.cpu.dtb.walker.walkRequestOrigin_Completed::Inst            0                       # Table walker requests started/completed, data/inst
system.cpu.dtb.walker.walkRequestOrigin_Completed::total            0                       # Table walker requests started/completed, data/inst
system.cpu.dtb.walker.walkRequestOrigin::total            0                       # Table walker requests started/completed, data/inst
system.cpu.dtb.inst_hits                            0                       # ITB inst hits
system.cpu.dtb.inst_misses                          0                       # ITB inst misses
system.cpu.dtb.read_hits                            0                       # DTB read hits
system.cpu.dtb.read_misses                          0                       # DTB read misses
system.cpu.dtb.write_hits                           0                       # DTB write hits
system.cpu.dtb.write_misses                         0                       # DTB write misses
system.cpu.dtb.flush_tlb                            0                       # Number of times complete TLB was flushed
system.cpu.dtb.flush_tlb_mva                        0                       # Number of times TLB was flushed by MVA
system.cpu.dtb.flush_tlb_mva_asid                   0                       # Number of times TLB was flushed by MVA & ASID
system.cpu.dtb.flush_tlb_asid                       0                       # Number of times TLB was flushed by ASID
system.cpu.dtb.flush_entries                        0                       # Number of entries that have been flushed from TLB
system.cpu.dtb.align_faults                         0                       # Number of TLB faults due to alignment restrictions
system.cpu.dtb.prefetch_faults                      0                       # Number of TLB faults due to prefetch
system.cpu.dtb.domain_faults                        0                       # Number of TLB faults due to domain restrictions
system.cpu.dtb.perms_faults                         0                       # Number of TLB faults due to permissions restrictions
system.cpu.dtb.read_accesses                        0                       # DTB read accesses
system.cpu.dtb.write_accesses                       0                       # DTB write accesses
system.cpu.dtb.inst_accesses                        0                       # ITB inst accesses
system.cpu.dtb.hits                                 0                       # DTB hits
system.cpu.dtb.misses                               0                       # DTB misses
system.cpu.dtb.accesses                             0                       # DTB accesses
system.cpu.istage2_mmu.stage2_tlb.walker.pwrStateResidencyTicks::UNDEFINED     72617500                       # Cumulative time (in ticks) in various power states
system.cpu.istage2_mmu.stage2_tlb.walker.walks            0                       # Table walker walks requested
system.cpu.istage2_mmu.stage2_tlb.walker.walkRequestOrigin_Requested::Data            0                       # Table walker requests started/completed, data/inst
system.cpu.istage2_mmu.stage2_tlb.walker.walkRequestOrigin_Requested::Inst            0                       # Table walker requests started/completed, data/inst
system.cpu.istage2_mmu.stage2_tlb.walker.walkRequestOrigin_Requested::total            0                       # Table walker requests started/completed, data/inst
system.cpu.istage2_mmu.stage2_tlb.walker.walkRequestOrigin_Completed::Data            0                       # Table walker requests started/completed, data/inst
system.cpu.istage2_mmu.stage2_tlb.walker.walkRequestOrigin_Completed::Inst            0                       # Table walker requests started/completed, data/inst
system.cpu.istage2_mmu.stage2_tlb.walker.walkRequestOrigin_Completed::total            0                       # Table walker requests started/completed, data/inst
system.cpu.istage2_mmu.stage2_tlb.walker.walkRequestOrigin::total            0                       # Table walker requests started/completed, data/inst
system.cpu.istage2_mmu.stage2_tlb.inst_hits            0                       # ITB inst hits
system.cpu.istage2_mmu.stage2_tlb.inst_misses            0                       # ITB inst misses
system.cpu.istage2_mmu.stage2_tlb.read_hits            0                       # DTB read hits
system.cpu.istage2_mmu.stage2_tlb.read_misses            0                       # DTB read misses
system.cpu.istage2_mmu.stage2_tlb.write_hits            0                       # DTB write hits
system.cpu.istage2_mmu.stage2_tlb.write_misses            0                       # DTB write misses
system.cpu.istage2_mmu.stage2_tlb.flush_tlb            0                       # Number of times complete TLB was flushed
system.cpu.istage2_mmu.stage2_tlb.flush_tlb_mva            0                       # Number of times TLB was flushed by MVA
system.cpu.istage2_mmu.stage2_tlb.flush_tlb_mva_asid            0                       # Number of times TLB was flushed by MVA & ASID
system.cpu.istage2_mmu.stage2_tlb.flush_tlb_asid            0                       # Number of times TLB was flushed by ASID
system.cpu.istage2_mmu.stage2_tlb.flush_entries            0                       # Number of entries that have been flushed from TLB
system.cpu.istage2_mmu.stage2_tlb.align_faults            0                       # Number of TLB faults due to alignment restrictions
system.cpu.istage2_mmu.stage2_tlb.prefetch_faults            0                       # Number of TLB faults due to prefetch
system.cpu.istage2_mmu.stage2_tlb.domain_faults            0                       # Number of TLB faults due to domain restrictions
system.cpu.istage2_mmu.stage2_tlb.perms_faults            0                       # Number of TLB faults due to permissions restrictions
system.cpu.istage2_mmu.stage2_tlb.read_accesses            0                       # DTB read accesses
system.cpu.istage2_mmu.stage2_tlb.write_accesses            0                       # DTB write accesses
system.cpu.istage2_mmu.stage2_tlb.inst_accesses            0                       # ITB inst accesses
system.cpu.istage2_mmu.stage2_tlb.hits              0                       # DTB hits
system.cpu.istage2_mmu.stage2_tlb.misses            0                       # DTB misses
system.cpu.istage2_mmu.stage2_tlb.accesses            0                       # DTB accesses
system.cpu.itb.walker.pwrStateResidencyTicks::UNDEFINED     72617500                       # Cumulative time (in ticks) in various power states
system.cpu.itb.walker.walks                         0                       # Table walker walks requested
system.cpu.itb.walker.walkRequestOrigin_Requested::Data            0                       # Table walker requests started/completed, data/inst
system.cpu.itb.walker.walkRequestOrigin_Requested::Inst            0                       # Table walker requests started/completed, data/inst
system.cpu.itb.walker.walkRequestOrigin_Requested::total            0                       # Table walker requests started/completed, data/inst
system.cpu.itb.walker.walkRequestOrigin_Completed::Data            0                       # Table walker requests started/completed, data/inst
system.cpu.itb.walker.walkRequestOrigin_Completed::Inst            0                       # Table walker requests started/completed, data/inst
system.cpu.itb.walker.walkRequestOrigin_Completed::total            0                       # Table walker requests started/completed, data/inst
system.cpu.itb.walker.walkRequestOrigin::total            0                       # Table walker requests started/completed, data/inst
system.cpu.itb.inst_hits                            0                       # ITB inst hits
system.cpu.itb.inst_misses                          0                       # ITB inst misses
system.cpu.itb.read_hits                            0                       # DTB read hits
system.cpu.itb.read_misses                          0                       # DTB read misses
system.cpu.itb.write_hits                           0                       # DTB write hits
system.cpu.itb.write_misses                         0                       # DTB write misses
system.cpu.itb.flush_tlb                            0                       # Number of times complete TLB was flushed
system.cpu.itb.flush_tlb_mva                        0                       # Number of times TLB was flushed by MVA
system.cpu.itb.flush_tlb_mva_asid                   0                       # Number of times TLB was flushed by MVA & ASID
system.cpu.itb.flush_tlb_asid                       0                       # Number of times TLB was flushed by ASID
system.cpu.itb.flush_entries                        0                       # Number of entries that have been flushed from TLB
system.cpu.itb.align_faults                         0                       # Number of TLB faults due to alignment restrictions
system.cpu.itb.prefetch_faults                      0                       # Number of TLB faults due to prefetch
system.cpu.itb.domain_faults                        0                       # Number of TLB faults due to domain restrictions
system.cpu.itb.perms_faults                         0                       # Number of TLB faults due to permissions restrictions
system.cpu.itb.read_accesses                        0                       # DTB read accesses
system.cpu.itb.write_accesses                       0                       # DTB write accesses
system.cpu.itb.inst_accesses                        0                       # ITB inst accesses
system.cpu.itb.hits                                 0                       # DTB hits
system.cpu.itb.misses                               0                       # DTB misses
system.cpu.itb.accesses                             0                       # DTB accesses
system.cpu.workload0.numSyscalls                   12                       # Number of system calls
system.cpu.workload1.numSyscalls                   12                       # Number of system calls
system.cpu.workload2.numSyscalls                   12                       # Number of system calls
system.cpu.workload3.numSyscalls                   12                       # Number of system calls
system.cpu.pwrStateResidencyTicks::ON        72617500                       # Cumulative time (in ticks) in various power states
system.cpu.numCycles                           145236                       # number of cpu cycles simulated
system.cpu.numWorkItemsStarted                      0                       # number of work items this cpu started
system.cpu.numWorkItemsCompleted                    0                       # number of work items this cpu completed
system.cpu.fetch.icacheStallCycles               2030                       # Number of cycles fetch is stalled on an Icache miss
system.cpu.fetch.Insts                         174540                       # Number of instructions fetch has processed
system.cpu.fetch.Branches                       29304                       # Number of branches that fetch encountered
system.cpu.fetch.predictedBranches              15492                       # Number of branches that fetch has predicted taken
system.cpu.fetch.Cycles                         44131                       # Number of cycles fetch has run and was not squashing or blocked
system.cpu.fetch.SquashCycles                    2827                       # Number of cycles fetch has spent squashing
system.cpu.fetch.MiscStallCycles                11620                       # Number of cycles fetch has spent waiting on interrupts, or bad addresses, or out of MSHRs
system.cpu.fetch.CacheLines                     24358                       # Number of cache lines fetched
system.cpu.fetch.IcacheSquashes                  1279                       # Number of outstanding Icache misses that were squashed
system.cpu.fetch.rateDist::samples             123644                       # Number of instructions fetched each cycle (Total)
system.cpu.fetch.rateDist::mean              1.629420                       # Number of instructions fetched each cycle (Total)
system.cpu.fetch.rateDist::stdev             2.806115                       # Number of instructions fetched each cycle (Total)
system.cpu.fetch.rateDist::underflows               0      0.00%      0.00% # Number of instructions fetched each cycle (Total)
system.cpu.fetch.rateDist::0                    85310     69.00%     69.00% # Number of instructions fetched each cycle (Total)
system.cpu.fetch.rateDist::1                     3488      2.82%     71.82% # Number of instructions fetched each cycle (Total)
system.cpu.fetch.rateDist::2                     3459      2.80%     74.62% # Number of instructions fetched each cycle (Total)
system.cpu.fetch.rateDist::3                     5244      4.24%     78.86% # Number of instructions fetched each cycle (Total)
system.cpu.fetch.rateDist::4                     3130      2.53%     81.39% # Number of instructions fetched each cycle (Total)
system.cpu.fetch.rateDist::5                     4584      3.71%     85.10% # Number of instructions fetched each cycle (Total)
system.cpu.fetch.rateDist::6                     3175      2.57%     87.66% # Number of instructions fetched each cycle (Total)
system.cpu.fetch.rateDist::7                     1192      0.96%     88.63% # Number of instructions fetched each cycle (Total)
system.cpu.fetch.rateDist::8                    14062     11.37%    100.00% # Number of instructions fetched each cycle (Total)
system.cpu.fetch.rateDist::overflows                0      0.00%    100.00% # Number of instructions fetched each cycle (Total)
system.cpu.fetch.rateDist::min_value                0                       # Number of instructions fetched each cycle (Total)
system.cpu.fetch.rateDist::max_value                8                       # Number of instructions fetched each cycle (Total)
system.cpu.fetch.rateDist::total               123644                       # Number of instructions fetched each cycle (Total)
system.cpu.fetch.branchRate                  0.201768                       # Number of branch fetches per cycle
system.cpu.fetch.rate                        1.201768                       # Number of inst fetches per cycle
system.cpu.decode.IdleCycles                   380837                       # Number of cycles decode is idle
system.cpu.decode.BlockedCycles                 71759                       # Number of cycles decode is blocked
system.cpu.decode.RunCycles                     31075                       # Number of cycles decode is running
system.cpu.decode.UnblockCycles                  7568                       # Number of cycles decode is unblocking
system.cpu.decode.SquashCycles                   1899                       # Number of cycles decode is squashing
system.cpu.decode.BranchResolved                12479                       # Number of times decode resolved a branch
system.cpu.decode.BranchMispred                   938                       # Number of times decode detected a branch misprediction
system.cpu.decode.DecodedInsts                 190057                       # Number of instructions handled by decode
system.cpu.decode.SquashedInsts                   910                       # Number of squashed instructions handled by decode
system.cpu.rename.SquashCycles                   1899                       # Number of cycles rename is squashing
system.cpu.rename.IdleCycles                   385888                       # Number of cycles rename is idle
system.cpu.rename.BlockCycles                   22864                       # Number of cycles rename is blocking
system.cpu.rename.serializeStallCycles          11118                       # count of cycles rename stalled for serializing inst
system.cpu.rename.RunCycles                     35088                       # Number of cycles rename is running
system.cpu.rename.UnblockCycles                 36281                       # Number of cycles rename is unblocking
system.cpu.rename.RenamedInsts                 187518                       # Number of instructions processed by rename
system.cpu.rename.ROBFullEvents                    10                       # Number of times rename has blocked due to ROB full
system.cpu.rename.IQFullEvents                  11670                       # Number of times rename has blocked due to IQ full
system.cpu.rename.LQFullEvents                   4031                       # Number of times rename has blocked due to LQ full
system.cpu.rename.SQFullEvents                  19996                       # Number of times rename has blocked due to SQ full
system.cpu.rename.RenamedOperands              225620                       # Number of destination operands rename has renamed
system.cpu.rename.RenameLookups                871941                       # Number of register rename lookups that rename has made
system.cpu.rename.int_rename_lookups           246131                       # Number of integer rename lookups
system.cpu.rename.fp_rename_lookups                64                       # Number of floating rename lookups
system.cpu.rename.CommittedMaps                208127                       # Number of HB maps that are committed
system.cpu.rename.UndoneMaps                    17493                       # Number of HB maps that are undone due to squashing
system.cpu.rename.serializingInsts                132                       # count of serializing insts renamed
system.cpu.rename.tempSerializingInsts            126                       # count of temporary serializing insts renamed
system.cpu.rename.skidInsts                     27321                       # count of insts added to the skid buffer
system.cpu.memDep0.insertedLoads                 6806                       # Number of loads inserted to the mem dependence unit.
system.cpu.memDep0.insertedStores                4724                       # Number of stores inserted to the mem dependence unit.
system.cpu.memDep0.conflictingLoads               343                       # Number of conflicting loads.
system.cpu.memDep0.conflictingStores               32                       # Number of conflicting stores.
system.cpu.memDep1.insertedLoads                 6666                       # Number of loads inserted to the mem dependence unit.
system.cpu.memDep1.insertedStores                4691                       # Number of stores inserted to the mem dependence unit.
system.cpu.memDep1.conflictingLoads               367                       # Number of conflicting loads.
system.cpu.memDep1.conflictingStores               14                       # Number of conflicting stores.
system.cpu.memDep2.insertedLoads                 6651                       # Number of loads inserted to the mem dependence unit.
system.cpu.memDep2.insertedStores                4658                       # Number of stores inserted to the mem dependence unit.
system.cpu.memDep2.conflictingLoads               358                       # Number of conflicting loads.
system.cpu.memDep2.conflictingStores               20                       # Number of conflicting stores.
system.cpu.memDep3.insertedLoads                 6780                       # Number of loads inserted to the mem dependence unit.
system.cpu.memDep3.insertedStores                4742                       # Number of stores inserted to the mem dependence unit.
system.cpu.memDep3.conflictingLoads               366                       # Number of conflicting loads.
system.cpu.memDep3.conflictingStores               37                       # Number of conflicting stores.
system.cpu.iq.iqInstsAdded                     183623                       # Number of instructions added to the IQ (excludes non-spec)
system.cpu.iq.iqNonSpecInstsAdded                 186                       # Number of non-speculative instructions added to the IQ
system.cpu.iq.iqInstsIssued                    181804                       # Number of instructions issued
system.cpu.iq.iqSquashedInstsIssued               104                       # Number of squashed instructions issued
system.cpu.iq.iqSquashedInstsExamined           11495                       # Number of squashed instructions iterated over during squash; mainly for profiling
system.cpu.iq.iqSquashedOperandsExamined        22464                       # Number of squashed operands that are examined and possibly removed from graph
system.cpu.iq.iqSquashedNonSpecRemoved             14                       # Number of squashed non-spec instructions that were removed
system.cpu.iq.issued_per_cycle::samples        123644                       # Number of insts issued each cycle
system.cpu.iq.issued_per_cycle::mean         1.470383                       # Number of insts issued each cycle
system.cpu.iq.issued_per_cycle::stdev        2.125577                       # Number of insts issued each cycle
system.cpu.iq.issued_per_cycle::underflows            0      0.00%      0.00% # Number of insts issued each cycle
system.cpu.iq.issued_per_cycle::0               68978     55.79%     55.79% # Number of insts issued each cycle
system.cpu.iq.issued_per_cycle::1               12711     10.28%     66.07% # Number of insts issued each cycle
system.cpu.iq.issued_per_cycle::2               10527      8.51%     74.58% # Number of insts issued each cycle
system.cpu.iq.issued_per_cycle::3                8629      6.98%     81.56% # Number of insts issued each cycle
system.cpu.iq.issued_per_cycle::4                7650      6.19%     87.75% # Number of insts issued each cycle
system.cpu.iq.issued_per_cycle::5                6189      5.01%     92.75% # Number of insts issued each cycle
system.cpu.iq.issued_per_cycle::6                4500      3.64%     96.39% # Number of insts issued each cycle
system.cpu.iq.issued_per_cycle::7                2073      1.68%     98.07% # Number of insts issued each cycle
system.cpu.iq.issued_per_cycle::8                2387      1.93%    100.00% # Number of insts issued each cycle
system.cpu.iq.issued_per_cycle::overflows            0      0.00%    100.00% # Number of insts issued each cycle
system.cpu.iq.issued_per_cycle::min_value            0                       # Number of insts issued each cycle
system.cpu.iq.issued_per_cycle::max_value            8                       # Number of insts issued each cycle
system.cpu.iq.issued_per_cycle::total          123644                       # Number of insts issued each cycle
system.cpu.iq.fu_full::No_OpClass                   0      0.00%      0.00% # attempts to use FU when none available
system.cpu.iq.fu_full::IntAlu                    1103     49.64%     49.64% # attempts to use FU when none available
system.cpu.iq.fu_full::IntMult                      0      0.00%     49.64% # attempts to use FU when none available
system.cpu.iq.fu_full::IntDiv                       0      0.00%     49.64% # attempts to use FU when none available
system.cpu.iq.fu_full::FloatAdd                     0      0.00%     49.64% # attempts to use FU when none available
system.cpu.iq.fu_full::FloatCmp                     0      0.00%     49.64% # attempts to use FU when none available
system.cpu.iq.fu_full::FloatCvt                     0      0.00%     49.64% # attempts to use FU when none available
system.cpu.iq.fu_full::FloatMult                    0      0.00%     49.64% # attempts to use FU when none available
system.cpu.iq.fu_full::FloatMultAcc                 0      0.00%     49.64% # attempts to use FU when none available
system.cpu.iq.fu_full::FloatDiv                     0      0.00%     49.64% # attempts to use FU when none available
system.cpu.iq.fu_full::FloatMisc                    0      0.00%     49.64% # attempts to use FU when none available
system.cpu.iq.fu_full::FloatSqrt                    0      0.00%     49.64% # attempts to use FU when none available
system.cpu.iq.fu_full::SimdAdd                      0      0.00%     49.64% # attempts to use FU when none available
system.cpu.iq.fu_full::SimdAddAcc                   0      0.00%     49.64% # attempts to use FU when none available
system.cpu.iq.fu_full::SimdAlu                      0      0.00%     49.64% # attempts to use FU when none available
system.cpu.iq.fu_full::SimdCmp                      0      0.00%     49.64% # attempts to use FU when none available
system.cpu.iq.fu_full::SimdCvt                      0      0.00%     49.64% # attempts to use FU when none available
system.cpu.iq.fu_full::SimdMisc                     0      0.00%     49.64% # attempts to use FU when none available
system.cpu.iq.fu_full::SimdMult                     0      0.00%     49.64% # attempts to use FU when none available
system.cpu.iq.fu_full::SimdMultAcc                  0      0.00%     49.64% # attempts to use FU when none available
system.cpu.iq.fu_full::SimdShift                    0      0.00%     49.64% # attempts to use FU when none available
system.cpu.iq.fu_full::SimdShiftAcc                 0      0.00%     49.64% # attempts to use FU when none available
system.cpu.iq.fu_full::SimdSqrt                     0      0.00%     49.64% # attempts to use FU when none available
system.cpu.iq.fu_full::SimdFloatAdd                 0      0.00%     49.64% # attempts to use FU when none available
system.cpu.iq.fu_full::SimdFloatAlu                 0      0.00%     49.64% # attempts to use FU when none available
system.cpu.iq.fu_full::SimdFloatCmp                 0      0.00%     49.64% # attempts to use FU when none available
system.cpu.iq.fu_full::SimdFloatCvt                 0      0.00%     49.64% # attempts to use FU when none available
system.cpu.iq.fu_full::SimdFloatDiv                 0      0.00%     49.64% # attempts to use FU when none available
system.cpu.iq.fu_full::SimdFloatMisc                0      0.00%     49.64% # attempts to use FU when none available
system.cpu.iq.fu_full::SimdFloatMult                0      0.00%     49.64% # attempts to use FU when none available
system.cpu.iq.fu_full::SimdFloatMultAcc             0      0.00%     49.64% # attempts to use FU when none available
system.cpu.iq.fu_full::SimdFloatSqrt                0      0.00%     49.64% # attempts to use FU when none available
system.cpu.iq.fu_full::MemRead                    567     25.52%     75.16% # attempts to use FU when none available
system.cpu.iq.fu_full::MemWrite                   544     24.48%     99.64% # attempts to use FU when none available
system.cpu.iq.fu_full::FloatMemRead                 0      0.00%     99.64% # attempts to use FU when none available
system.cpu.iq.fu_full::FloatMemWrite                8      0.36%    100.00% # attempts to use FU when none available
system.cpu.iq.fu_full::IprAccess                    0      0.00%    100.00% # attempts to use FU when none available
system.cpu.iq.fu_full::InstPrefetch                 0      0.00%    100.00% # attempts to use FU when none available
system.cpu.iq.FU_type_0::No_OpClass                 0      0.00%      0.00% # Type of FU issued
system.cpu.iq.FU_type_0::IntAlu                 33978     74.36%     74.36% # Type of FU issued
system.cpu.iq.FU_type_0::IntMult                   32      0.07%     74.43% # Type of FU issued
system.cpu.iq.FU_type_0::IntDiv                     0      0.00%     74.43% # Type of FU issued
system.cpu.iq.FU_type_0::FloatAdd                   0      0.00%     74.43% # Type of FU issued
system.cpu.iq.FU_type_0::FloatCmp                   0      0.00%     74.43% # Type of FU issued
system.cpu.iq.FU_type_0::FloatCvt                   0      0.00%     74.43% # Type of FU issued
system.cpu.iq.FU_type_0::FloatMult                  0      0.00%     74.43% # Type of FU issued
system.cpu.iq.FU_type_0::FloatMultAcc               0      0.00%     74.43% # Type of FU issued
system.cpu.iq.FU_type_0::FloatDiv                   0      0.00%     74.43% # Type of FU issued
system.cpu.iq.FU_type_0::FloatMisc                  0      0.00%     74.43% # Type of FU issued
system.cpu.iq.FU_type_0::FloatSqrt                  0      0.00%     74.43% # Type of FU issued
system.cpu.iq.FU_type_0::SimdAdd                    0      0.00%     74.43% # Type of FU issued
system.cpu.iq.FU_type_0::SimdAddAcc                 0      0.00%     74.43% # Type of FU issued
system.cpu.iq.FU_type_0::SimdAlu                    0      0.00%     74.43% # Type of FU issued
system.cpu.iq.FU_type_0::SimdCmp                    0      0.00%     74.43% # Type of FU issued
system.cpu.iq.FU_type_0::SimdCvt                    0      0.00%     74.43% # Type of FU issued
system.cpu.iq.FU_type_0::SimdMisc                   0      0.00%     74.43% # Type of FU issued
system.cpu.iq.FU_type_0::SimdMult                   0      0.00%     74.43% # Type of FU issued
system.cpu.iq.FU_type_0::SimdMultAcc                0      0.00%     74.43% # Type of FU issued
system.cpu.iq.FU_type_0::SimdShift                  0      0.00%     74.43% # Type of FU issued
system.cpu.iq.FU_type_0::SimdShiftAcc               0      0.00%     74.43% # Type of FU issued
system.cpu.iq.FU_type_0::SimdSqrt                   0      0.00%     74.43% # Type of FU issued
system.cpu.iq.FU_type_0::SimdFloatAdd               0      0.00%     74.43% # Type of FU issued
system.cpu.iq.FU_type_0::SimdFloatAlu               0      0.00%     74.43% # Type of FU issued
system.cpu.iq.FU_type_0::SimdFloatCmp               0      0.00%     74.43% # Type of FU issued
system.cpu.iq.FU_type_0::SimdFloatCvt               0      0.00%     74.43% # Type of FU issued
system.cpu.iq.FU_type_0::SimdFloatDiv               0      0.00%     74.43% # Type of FU issued
system.cpu.iq.FU_type_0::SimdFloatMisc              1      0.00%     74.43% # Type of FU issued
system.cpu.iq.FU_type_0::SimdFloatMult              0      0.00%     74.43% # Type of FU issued
system.cpu.iq.FU_type_0::SimdFloatMultAcc            0      0.00%     74.43% # Type of FU issued
system.cpu.iq.FU_type_0::SimdFloatSqrt              0      0.00%     74.43% # Type of FU issued
system.cpu.iq.FU_type_0::MemRead                 7049     15.43%     89.85% # Type of FU issued
system.cpu.iq.FU_type_0::MemWrite                4620     10.11%     99.96% # Type of FU issued
system.cpu.iq.FU_type_0::FloatMemRead               0      0.00%     99.96% # Type of FU issued
system.cpu.iq.FU_type_0::FloatMemWrite             16      0.04%    100.00% # Type of FU issued
system.cpu.iq.FU_type_0::IprAccess                  0      0.00%    100.00% # Type of FU issued
system.cpu.iq.FU_type_0::InstPrefetch               0      0.00%    100.00% # Type of FU issued
system.cpu.iq.FU_type_0::total                  45696                       # Type of FU issued
system.cpu.iq.FU_type_1::No_OpClass                 0      0.00%      0.00% # Type of FU issued
system.cpu.iq.FU_type_1::IntAlu                 33694     74.52%     74.52% # Type of FU issued
system.cpu.iq.FU_type_1::IntMult                   30      0.07%     74.59% # Type of FU issued
system.cpu.iq.FU_type_1::IntDiv                     0      0.00%     74.59% # Type of FU issued
system.cpu.iq.FU_type_1::FloatAdd                   0      0.00%     74.59% # Type of FU issued
system.cpu.iq.FU_type_1::FloatCmp                   0      0.00%     74.59% # Type of FU issued
system.cpu.iq.FU_type_1::FloatCvt                   0      0.00%     74.59% # Type of FU issued
system.cpu.iq.FU_type_1::FloatMult                  0      0.00%     74.59% # Type of FU issued
system.cpu.iq.FU_type_1::FloatMultAcc               0      0.00%     74.59% # Type of FU issued
system.cpu.iq.FU_type_1::FloatDiv                   0      0.00%     74.59% # Type of FU issued
system.cpu.iq.FU_type_1::FloatMisc                  0      0.00%     74.59% # Type of FU issued
system.cpu.iq.FU_type_1::FloatSqrt                  0      0.00%     74.59% # Type of FU issued
system.cpu.iq.FU_type_1::SimdAdd                    0      0.00%     74.59% # Type of FU issued
system.cpu.iq.FU_type_1::SimdAddAcc                 0      0.00%     74.59% # Type of FU issued
system.cpu.iq.FU_type_1::SimdAlu                    0      0.00%     74.59% # Type of FU issued
system.cpu.iq.FU_type_1::SimdCmp                    0      0.00%     74.59% # Type of FU issued
system.cpu.iq.FU_type_1::SimdCvt                    0      0.00%     74.59% # Type of FU issued
system.cpu.iq.FU_type_1::SimdMisc                   0      0.00%     74.59% # Type of FU issued
system.cpu.iq.FU_type_1::SimdMult                   0      0.00%     74.59% # Type of FU issued
system.cpu.iq.FU_type_1::SimdMultAcc                0      0.00%     74.59% # Type of FU issued
system.cpu.iq.FU_type_1::SimdShift                  0      0.00%     74.59% # Type of FU issued
system.cpu.iq.FU_type_1::SimdShiftAcc               0      0.00%     74.59% # Type of FU issued
system.cpu.iq.FU_type_1::SimdSqrt                   0      0.00%     74.59% # Type of FU issued
system.cpu.iq.FU_type_1::SimdFloatAdd               0      0.00%     74.59% # Type of FU issued
system.cpu.iq.FU_type_1::SimdFloatAlu               0      0.00%     74.59% # Type of FU issued
system.cpu.iq.FU_type_1::SimdFloatCmp               0      0.00%     74.59% # Type of FU issued
system.cpu.iq.FU_type_1::SimdFloatCvt               0      0.00%     74.59% # Type of FU issued
system.cpu.iq.FU_type_1::SimdFloatDiv               0      0.00%     74.59% # Type of FU issued
system.cpu.iq.FU_type_1::SimdFloatMisc              1      0.00%     74.59% # Type of FU issued
system.cpu.iq.FU_type_1::SimdFloatMult              0      0.00%     74.59% # Type of FU issued
system.cpu.iq.FU_type_1::SimdFloatMultAcc            0      0.00%     74.59% # Type of FU issued
system.cpu.iq.FU_type_1::SimdFloatSqrt              0      0.00%     74.59% # Type of FU issued
system.cpu.iq.FU_type_1::MemRead                 6866     15.19%     89.78% # Type of FU issued
system.cpu.iq.FU_type_1::MemWrite                4606     10.19%     99.96% # Type of FU issued
system.cpu.iq.FU_type_1::FloatMemRead               0      0.00%     99.96% # Type of FU issued
system.cpu.iq.FU_type_1::FloatMemWrite             16      0.04%    100.00% # Type of FU issued
system.cpu.iq.FU_type_1::IprAccess                  0      0.00%    100.00% # Type of FU issued
system.cpu.iq.FU_type_1::InstPrefetch               0      0.00%    100.00% # Type of FU issued
system.cpu.iq.FU_type_1::total                  45213                       # Type of FU issued
system.cpu.iq.FU_type_2::No_OpClass                 0      0.00%      0.00% # Type of FU issued
system.cpu.iq.FU_type_2::IntAlu                 33700     74.49%     74.49% # Type of FU issued
system.cpu.iq.FU_type_2::IntMult                   31      0.07%     74.56% # Type of FU issued
system.cpu.iq.FU_type_2::IntDiv                     0      0.00%     74.56% # Type of FU issued
system.cpu.iq.FU_type_2::FloatAdd                   0      0.00%     74.56% # Type of FU issued
system.cpu.iq.FU_type_2::FloatCmp                   0      0.00%     74.56% # Type of FU issued
system.cpu.iq.FU_type_2::FloatCvt                   0      0.00%     74.56% # Type of FU issued
system.cpu.iq.FU_type_2::FloatMult                  0      0.00%     74.56% # Type of FU issued
system.cpu.iq.FU_type_2::FloatMultAcc               0      0.00%     74.56% # Type of FU issued
system.cpu.iq.FU_type_2::FloatDiv                   0      0.00%     74.56% # Type of FU issued
system.cpu.iq.FU_type_2::FloatMisc                  0      0.00%     74.56% # Type of FU issued
system.cpu.iq.FU_type_2::FloatSqrt                  0      0.00%     74.56% # Type of FU issued
system.cpu.iq.FU_type_2::SimdAdd                    0      0.00%     74.56% # Type of FU issued
system.cpu.iq.FU_type_2::SimdAddAcc                 0      0.00%     74.56% # Type of FU issued
system.cpu.iq.FU_type_2::SimdAlu                    0      0.00%     74.56% # Type of FU issued
system.cpu.iq.FU_type_2::SimdCmp                    0      0.00%     74.56% # Type of FU issued
system.cpu.iq.FU_type_2::SimdCvt                    0      0.00%     74.56% # Type of FU issued
system.cpu.iq.FU_type_2::SimdMisc                   0      0.00%     74.56% # Type of FU issued
system.cpu.iq.FU_type_2::SimdMult                   0      0.00%     74.56% # Type of FU issued
system.cpu.iq.FU_type_2::SimdMultAcc                0      0.00%     74.56% # Type of FU issued
system.cpu.iq.FU_type_2::SimdShift                  0      0.00%     74.56% # Type of FU issued
system.cpu.iq.FU_type_2::SimdShiftAcc               0      0.00%     74.56% # Type of FU issued
system.cpu.iq.FU_type_2::SimdSqrt                   0      0.00%     74.56% # Type of FU issued
system.cpu.iq.FU_type_2::SimdFloatAdd               0      0.00%     74.56% # Type of FU issued
system.cpu.iq.FU_type_2::SimdFloatAlu               0      0.00%     74.56% # Type of FU issued
system.cpu.iq.FU_type_2::SimdFloatCmp               0      0.00%     74.56% # Type of FU issued
system.cpu.iq.FU_type_2::SimdFloatCvt               0      0.00%     74.56% # Type of FU issued
system.cpu.iq.FU_type_2::SimdFloatDiv               0      0.00%     74.56% # Type of FU issued
system.cpu.iq.FU_type_2::SimdFloatMisc              1      0.00%     74.56% # Type of FU issued
system.cpu.iq.FU_type_2::SimdFloatMult              0      0.00%     74.56% # Type of FU issued
system.cpu.iq.FU_type_2::SimdFloatMultAcc            0      0.00%     74.56% # Type of FU issued
system.cpu.iq.FU_type_2::SimdFloatSqrt              0      0.00%     74.56% # Type of FU issued
system.cpu.iq.FU_type_2::MemRead                 6916     15.29%     89.85% # Type of FU issued
system.cpu.iq.FU_type_2::MemWrite                4578     10.12%     99.96% # Type of FU issued
system.cpu.iq.FU_type_2::FloatMemRead               0      0.00%     99.96% # Type of FU issued
system.cpu.iq.FU_type_2::FloatMemWrite             16      0.04%    100.00% # Type of FU issued
system.cpu.iq.FU_type_2::IprAccess                  0      0.00%    100.00% # Type of FU issued
system.cpu.iq.FU_type_2::InstPrefetch               0      0.00%    100.00% # Type of FU issued
system.cpu.iq.FU_type_2::total                  45242                       # Type of FU issued
system.cpu.iq.FU_type_3::No_OpClass                 0      0.00%      0.00% # Type of FU issued
system.cpu.iq.FU_type_3::IntAlu                 33970     74.41%     74.41% # Type of FU issued
system.cpu.iq.FU_type_3::IntMult                   31      0.07%     74.48% # Type of FU issued
system.cpu.iq.FU_type_3::IntDiv                     0      0.00%     74.48% # Type of FU issued
system.cpu.iq.FU_type_3::FloatAdd                   0      0.00%     74.48% # Type of FU issued
system.cpu.iq.FU_type_3::FloatCmp                   0      0.00%     74.48% # Type of FU issued
system.cpu.iq.FU_type_3::FloatCvt                   0      0.00%     74.48% # Type of FU issued
system.cpu.iq.FU_type_3::FloatMult                  0      0.00%     74.48% # Type of FU issued
system.cpu.iq.FU_type_3::FloatMultAcc               0      0.00%     74.48% # Type of FU issued
system.cpu.iq.FU_type_3::FloatDiv                   0      0.00%     74.48% # Type of FU issued
system.cpu.iq.FU_type_3::FloatMisc                  0      0.00%     74.48% # Type of FU issued
system.cpu.iq.FU_type_3::FloatSqrt                  0      0.00%     74.48% # Type of FU issued
system.cpu.iq.FU_type_3::SimdAdd                    0      0.00%     74.48% # Type of FU issued
system.cpu.iq.FU_type_3::SimdAddAcc                 0      0.00%     74.48% # Type of FU issued
system.cpu.iq.FU_type_3::SimdAlu                    0      0.00%     74.48% # Type of FU issued
system.cpu.iq.FU_type_3::SimdCmp                    0      0.00%     74.48% # Type of FU issued
system.cpu.iq.FU_type_3::SimdCvt                    0      0.00%     74.48% # Type of FU issued
system.cpu.iq.FU_type_3::SimdMisc                   0      0.00%     74.48% # Type of FU issued
system.cpu.iq.FU_type_3::SimdMult                   0      0.00%     74.48% # Type of FU issued
system.cpu.iq.FU_type_3::SimdMultAcc                0      0.00%     74.48% # Type of FU issued
system.cpu.iq.FU_type_3::SimdShift                  0      0.00%     74.48% # Type of FU issued
system.cpu.iq.FU_type_3::SimdShiftAcc               0      0.00%     74.48% # Type of FU issued
system.cpu.iq.FU_type_3::SimdSqrt                   0      0.00%     74.48% # Type of FU issued
system.cpu.iq.FU_type_3::SimdFloatAdd               0      0.00%     74.48% # Type of FU issued
system.cpu.iq.FU_type_3::SimdFloatAlu               0      0.00%     74.48% # Type of FU issued
system.cpu.iq.FU_type_3::SimdFloatCmp               0      0.00%     74.48% # Type of FU issued
system.cpu.iq.FU_type_3::SimdFloatCvt               0      0.00%     74.48% # Type of FU issued
system.cpu.iq.FU_type_3::SimdFloatDiv               0      0.00%     74.48% # Type of FU issued
system.cpu.iq.FU_type_3::SimdFloatMisc              1      0.00%     74.48% # Type of FU issued
system.cpu.iq.FU_type_3::SimdFloatMult              0      0.00%     74.48% # Type of FU issued
system.cpu.iq.FU_type_3::SimdFloatMultAcc            0      0.00%     74.48% # Type of FU issued
system.cpu.iq.FU_type_3::SimdFloatSqrt              0      0.00%     74.48% # Type of FU issued
system.cpu.iq.FU_type_3::MemRead                 7024     15.39%     89.86% # Type of FU issued
system.cpu.iq.FU_type_3::MemWrite                4611     10.10%     99.96% # Type of FU issued
system.cpu.iq.FU_type_3::FloatMemRead               0      0.00%     99.96% # Type of FU issued
system.cpu.iq.FU_type_3::FloatMemWrite             16      0.04%    100.00% # Type of FU issued
system.cpu.iq.FU_type_3::IprAccess                  0      0.00%    100.00% # Type of FU issued
system.cpu.iq.FU_type_3::InstPrefetch               0      0.00%    100.00% # Type of FU issued
system.cpu.iq.FU_type_3::total                  45653                       # Type of FU issued
system.cpu.iq.FU_type::total                   181804      0.00%      0.00% # Type of FU issued
system.cpu.iq.rate                           1.251783                       # Inst issue rate
system.cpu.iq.fu_busy_cnt::0                      538                       # FU busy when requested
system.cpu.iq.fu_busy_cnt::1                      534                       # FU busy when requested
system.cpu.iq.fu_busy_cnt::2                      596                       # FU busy when requested
system.cpu.iq.fu_busy_cnt::3                      554                       # FU busy when requested
[...]
system.l2.ReadCleanReq_accesses::total           5664                       # number of ReadCleanReq accesses(hits+misses)
system.l2.ReadSharedReq_accesses::cpu.data          529                       # number of ReadSharedReq accesses(hits+misses)
system.l2.ReadSharedReq_accesses::total           529                       # number of ReadSharedReq accesses(hits+misses)
system.l2.demand_accesses::cpu.inst              5664                       # number of demand (read+write) accesses
system.l2.demand_accesses::cpu.data               861                       # number of demand (read+write) accesses
system.l2.demand_accesses::total                 6525                       # number of demand (read+write) accesses
system.l2.overall_accesses::cpu.inst             5664                       # number of overall (read+write) accesses
system.l2.overall_accesses::cpu.data              861                       # number of overall (read+write) accesses
system.l2.overall_accesses::total                6525                       # number of overall (read+write) accesses
system.l2.ReadExReq_miss_rate::cpu.data      0.975904                       # miss rate for ReadExReq accesses
system.l2.ReadExReq_miss_rate::total         0.975904                       # miss rate for ReadExReq accesses
system.l2.ReadCleanReq_miss_rate::cpu.inst     0.320268                       # miss rate for ReadCleanReq accesses
system.l2.ReadCleanReq_miss_rate::total      0.320268                       # miss rate for ReadCleanReq accesses
system.l2.ReadSharedReq_miss_rate::cpu.data     0.863894                       # miss rate for ReadSharedReq accesses
system.l2.ReadSharedReq_miss_rate::total     0.863894                       # miss rate for ReadSharedReq accesses
system.l2.demand_miss_rate::cpu.inst         0.320268                       # miss rate for demand accesses
system.l2.demand_miss_rate::cpu.data         0.907085                       # miss rate for demand accesses
system.l2.demand_miss_rate::total            0.397701                       # miss rate for demand accesses
system.l2.overall_miss_rate::cpu.inst        0.320268                       # miss rate for overall accesses
system.l2.overall_miss_rate::cpu.data        0.907085                       # miss rate for overall accesses
system.l2.overall_miss_rate::total           0.397701                       # miss rate for overall accesses
system.l2.ReadExReq_avg_miss_latency::cpu.data 95776.234568                       # average ReadExReq miss latency
system.l2.ReadExReq_avg_miss_latency::total 95776.234568                       # average ReadExReq miss latency
system.l2.ReadCleanReq_avg_miss_latency::cpu.inst 95156.008820                       # average ReadCleanReq miss latency
system.l2.ReadCleanReq_avg_miss_latency::total 95156.008820                       # average ReadCleanReq miss latency
system.l2.ReadSharedReq_avg_miss_latency::cpu.data 101435.448578                       # average ReadSharedReq miss latency
system.l2.ReadSharedReq_avg_miss_latency::total 101435.448578                       # average ReadSharedReq miss latency
system.l2.demand_avg_miss_latency::cpu.inst 95156.008820                       # average overall miss latency
system.l2.demand_avg_miss_latency::cpu.data 99087.708067                       # average overall miss latency
system.l2.demand_avg_miss_latency::total 96339.306358                       # average overall miss latency
system.l2.overall_avg_miss_latency::cpu.inst 95156.008820                       # average overall miss latency
system.l2.overall_avg_miss_latency::cpu.data 99087.708067                       # average overall miss latency
system.l2.overall_avg_miss_latency::total 96339.306358                       # average overall miss latency
system.l2.blocked_cycles::no_mshrs                  0                       # number of cycles access was blocked
system.l2.blocked_cycles::no_targets                0                       # number of cycles access was blocked
system.l2.blocked::no_mshrs                         0                       # number of cycles access was blocked
system.l2.blocked::no_targets                       0                       # number of cycles access was blocked
system.l2.avg_blocked_cycles::no_mshrs            nan                       # average number of cycles each access was blocked
system.l2.avg_blocked_cycles::no_targets          nan                       # average number of cycles each access was blocked
system.l2.ReadCleanReq_mshr_hits::cpu.inst            4                       # number of ReadCleanReq MSHR hits
system.l2.ReadCleanReq_mshr_hits::total             4                       # number of ReadCleanReq MSHR hits
system.l2.ReadSharedReq_mshr_hits::cpu.data           13                       # number of ReadSharedReq MSHR hits
system.l2.ReadSharedReq_mshr_hits::total           13                       # number of ReadSharedReq MSHR hits
system.l2.demand_mshr_hits::cpu.inst                4                       # number of demand (read+write) MSHR hits
system.l2.demand_mshr_hits::cpu.data               13                       # number of demand (read+write) MSHR hits
system.l2.demand_mshr_hits::total                  17                       # number of demand (read+write) MSHR hits
system.l2.overall_mshr_hits::cpu.inst               4                       # number of overall MSHR hits
system.l2.overall_mshr_hits::cpu.data              13                       # number of overall MSHR hits
system.l2.overall_mshr_hits::total                 17                       # number of overall MSHR hits
system.l2.ReadExReq_mshr_misses::cpu.data          324                       # number of ReadExReq MSHR misses
system.l2.ReadExReq_mshr_misses::total            324                       # number of ReadExReq MSHR misses
system.l2.ReadCleanReq_mshr_misses::cpu.inst         1810                       # number of ReadCleanReq MSHR misses
system.l2.ReadCleanReq_mshr_misses::total         1810                       # number of ReadCleanReq MSHR misses
system.l2.ReadSharedReq_mshr_misses::cpu.data          444                       # number of ReadSharedReq MSHR misses
system.l2.ReadSharedReq_mshr_misses::total          444                       # number of ReadSharedReq MSHR misses
system.l2.demand_mshr_misses::cpu.inst           1810                       # number of demand (read+write) MSHR misses
system.l2.demand_mshr_misses::cpu.data            768                       # number of demand (read+write) MSHR misses
system.l2.demand_mshr_misses::total              2578                       # number of demand (read+write) MSHR misses
system.l2.overall_mshr_misses::cpu.inst          1810                       # number of overall MSHR misses
system.l2.overall_mshr_misses::cpu.data           768                       # number of overall MSHR misses
system.l2.overall_mshr_misses::total             2578                       # number of overall MSHR misses
system.l2.ReadExReq_mshr_miss_latency::cpu.data     27791500                       # number of ReadExReq MSHR miss cycles
system.l2.ReadExReq_mshr_miss_latency::total     27791500                       # number of ReadExReq MSHR miss cycles
system.l2.ReadCleanReq_mshr_miss_latency::cpu.inst    154201500                       # number of ReadCleanReq MSHR miss cycles
system.l2.ReadCleanReq_mshr_miss_latency::total    154201500                       # number of ReadCleanReq MSHR miss cycles
system.l2.ReadSharedReq_mshr_miss_latency::cpu.data     40476500                       # number of ReadSharedReq MSHR miss cycles
system.l2.ReadSharedReq_mshr_miss_latency::total     40476500                       # number of ReadSharedReq MSHR miss cycles
system.l2.demand_mshr_miss_latency::cpu.inst    154201500                       # number of demand (read+write) MSHR miss cycles
system.l2.demand_mshr_miss_latency::cpu.data     68268000                       # number of demand (read+write) MSHR miss cycles
system.l2.demand_mshr_miss_latency::total    222469500                       # number of demand (read+write) MSHR miss cycles
system.l2.overall_mshr_miss_latency::cpu.inst    154201500                       # number of overall MSHR miss cycles
system.l2.overall_mshr_miss_latency::cpu.data     68268000                       # number of overall MSHR miss cycles
system.l2.overall_mshr_miss_latency::total    222469500                       # number of overall MSHR miss cycles
system.l2.ReadExReq_mshr_miss_rate::cpu.data     0.975904                       # mshr miss rate for ReadExReq accesses
system.l2.ReadExReq_mshr_miss_rate::total     0.975904                       # mshr miss rate for ReadExReq accesses
system.l2.ReadCleanReq_mshr_miss_rate::cpu.inst     0.319562                       # mshr miss rate for ReadCleanReq accesses
system.l2.ReadCleanReq_mshr_miss_rate::total     0.319562                       # mshr miss rate for ReadCleanReq accesses
system.l2.ReadSharedReq_mshr_miss_rate::cpu.data     0.839319                       # mshr miss rate for ReadSharedReq accesses
system.l2.ReadSharedReq_mshr_miss_rate::total     0.839319                       # mshr miss rate for ReadSharedReq accesses
system.l2.demand_mshr_miss_rate::cpu.inst     0.319562                       # mshr miss rate for demand accesses
system.l2.demand_mshr_miss_rate::cpu.data     0.891986                       # mshr miss rate for demand accesses
system.l2.demand_mshr_miss_rate::total       0.395096                       # mshr miss rate for demand accesses
system.l2.overall_mshr_miss_rate::cpu.inst     0.319562                       # mshr miss rate for overall accesses
system.l2.overall_mshr_miss_rate::cpu.data     0.891986                       # mshr miss rate for overall accesses
system.l2.overall_mshr_miss_rate::total      0.395096                       # mshr miss rate for overall accesses
system.l2.ReadExReq_avg_mshr_miss_latency::cpu.data 85776.234568                       # average ReadExReq mshr miss latency
system.l2.ReadExReq_avg_mshr_miss_latency::total 85776.234568                       # average ReadExReq mshr miss latency
system.l2.ReadCleanReq_avg_mshr_miss_latency::cpu.inst 85194.198895                       # average ReadCleanReq mshr miss latency
system.l2.ReadCleanReq_avg_mshr_miss_latency::total 85194.198895                       # average ReadCleanReq mshr miss latency
system.l2.ReadSharedReq_avg_mshr_miss_latency::cpu.data 91163.288288                       # average ReadSharedReq mshr miss latency
system.l2.ReadSharedReq_avg_mshr_miss_latency::total 91163.288288                       # average ReadSharedReq mshr miss latency
system.l2.demand_avg_mshr_miss_latency::cpu.inst 85194.198895                       # average overall mshr miss latency
system.l2.demand_avg_mshr_miss_latency::cpu.data 88890.625000                       # average overall mshr miss latency
system.l2.demand_avg_mshr_miss_latency::total 86295.384019                       # average overall mshr miss latency
system.l2.overall_avg_mshr_miss_latency::cpu.inst 85194.198895                       # average overall mshr miss latency
system.l2.overall_avg_mshr_miss_latency::cpu.data 88890.625000                       # average overall mshr miss latency
system.l2.overall_avg_mshr_miss_latency::total 86295.384019                       # average overall mshr miss latency
system.membus.snoop_filter.tot_requests          2577                       # Total number of requests made to the snoop filter.
system.membus.snoop_filter.hit_single_requests            0                       # Number of requests hitting in the snoop filter with a single holder of the requested data.
system.membus.snoop_filter.hit_multi_requests            0                       # Number of requests hitting in the snoop filter with multiple (>1) holders of the requested data.
system.membus.snoop_filter.tot_snoops               0                       # Total number of snoops made to the snoop filter.
system.membus.snoop_filter.hit_single_snoops            0                       # Number of snoops hitting in the snoop filter with a single holder of the requested data.
system.membus.snoop_filter.hit_multi_snoops            0                       # Number of snoops hitting in the snoop filter with multiple (>1) holders of the requested data.
system.membus.pwrStateResidencyTicks::UNDEFINED     72617500                       # Cumulative time (in ticks) in various power states
system.membus.trans_dist::ReadResp               2253                       # Transaction distribution
system.membus.trans_dist::ReadExReq               324                       # Transaction distribution
system.membus.trans_dist::ReadExResp              324                       # Transaction distribution
system.membus.trans_dist::ReadSharedReq          2253                       # Transaction distribution
system.membus.pkt_count_system.l2.mem_side::system.mem_ctrls.port         5154                       # Packet count per connected master and slave (bytes)
system.membus.pkt_count::total                   5154                       # Packet count per connected master and slave (bytes)
system.membus.pkt_size_system.l2.mem_side::system.mem_ctrls.port       164928                       # Cumulative packet size per connected master and slave (bytes)
system.membus.pkt_size::total                  164928                       # Cumulative packet size per connected master and slave (bytes)
system.membus.snoops                                0                       # Total snoops (count)
system.membus.snoopTraffic                          0                       # Total snoop traffic (bytes)
system.membus.snoop_fanout::samples              2577                       # Request fanout histogram
system.membus.snoop_fanout::mean                    0                       # Request fanout histogram
system.membus.snoop_fanout::stdev                   0                       # Request fanout histogram
system.membus.snoop_fanout::underflows              0      0.00%      0.00% # Request fanout histogram
system.membus.snoop_fanout::0                    2577    100.00%    100.00% # Request fanout histogram
system.membus.snoop_fanout::1                       0      0.00%    100.00% # Request fanout histogram
system.membus.snoop_fanout::overflows               0      0.00%    100.00% # Request fanout histogram
system.membus.snoop_fanout::min_value               0                       # Request fanout histogram
system.membus.snoop_fanout::max_value               0                       # Request fanout histogram
system.membus.snoop_fanout::total                2577                       # Request fanout histogram
system.membus.reqLayer0.occupancy             3274500                       # Layer occupancy (ticks)
system.membus.reqLayer0.utilization               4.5                       # Layer utilization (%)
system.membus.respLayer1.occupancy           13759500                       # Layer occupancy (ticks)
system.membus.respLayer1.utilization             18.9                       # Layer utilization (%)
system.tol2bus.snoop_filter.tot_requests        11825                       # Total number of requests made to the snoop filter.
system.tol2bus.snoop_filter.hit_single_requests         5363                       # Number of requests hitting in the snoop filter with a single holder of the requested data.
system.tol2bus.snoop_filter.hit_multi_requests          142                       # Number of requests hitting in the snoop filter with multiple (>1) holders of the requested data.
system.tol2bus.snoop_filter.tot_snoops              0                       # Total number of snoops made to the snoop filter.
system.tol2bus.snoop_filter.hit_single_snoops            0                       # Number of snoops hitting in the snoop filter with a single holder of the requested data.
system.tol2bus.snoop_filter.hit_multi_snoops            0                       # Number of snoops hitting in the snoop filter with multiple (>1) holders of the requested data.
system.tol2bus.pwrStateResidencyTicks::UNDEFINED     72617500                       # Cumulative time (in ticks) in various power states
system.tol2bus.trans_dist::ReadResp              6191                       # Transaction distribution
system.tol2bus.trans_dist::WritebackDirty           45                       # Transaction distribution
system.tol2bus.trans_dist::WritebackClean         5166                       # Transaction distribution
system.tol2bus.trans_dist::CleanEvict              89                       # Transaction distribution
system.tol2bus.trans_dist::ReadExReq              332                       # Transaction distribution
system.tol2bus.trans_dist::ReadExResp             332                       # Transaction distribution
system.tol2bus.trans_dist::ReadCleanReq          5664                       # Transaction distribution
system.tol2bus.trans_dist::ReadSharedReq          529                       # Transaction distribution
system.tol2bus.pkt_count_system.cpu.icache.mem_side::system.l2.cpu_side        16492                       # Packet count per connected master and slave (bytes)
system.tol2bus.pkt_count_system.cpu.dcache.mem_side::system.l2.cpu_side         1856                       # Packet count per connected master and slave (bytes)
system.tol2bus.pkt_count::total                 18348                       # Packet count per connected master and slave (bytes)
system.tol2bus.pkt_size_system.cpu.icache.mem_side::system.l2.cpu_side       692992                       # Cumulative packet size per connected master and slave (bytes)
system.tol2bus.pkt_size_system.cpu.dcache.mem_side::system.l2.cpu_side        57984                       # Cumulative packet size per connected master and slave (bytes)
system.tol2bus.pkt_size::total                 750976                       # Cumulative packet size per connected master and slave (bytes)
system.tol2bus.snoops                               0                       # Total snoops (count)
system.tol2bus.snoopTraffic                         0                       # Total snoop traffic (bytes)
system.tol2bus.snoop_fanout::samples             6525                       # Request fanout histogram
system.tol2bus.snoop_fanout::mean            0.031418                       # Request fanout histogram
system.tol2bus.snoop_fanout::stdev           0.174457                       # Request fanout histogram
system.tol2bus.snoop_fanout::underflows             0      0.00%      0.00% # Request fanout histogram
system.tol2bus.snoop_fanout::0                   6320     96.86%     96.86% # Request fanout histogram
system.tol2bus.snoop_fanout::1                    205      3.14%    100.00% # Request fanout histogram
system.tol2bus.snoop_fanout::2                      0      0.00%    100.00% # Request fanout histogram
system.tol2bus.snoop_fanout::overflows              0      0.00%    100.00% # Request fanout histogram
system.tol2bus.snoop_fanout::min_value              0                       # Request fanout histogram
system.tol2bus.snoop_fanout::max_value              1                       # Request fanout histogram
system.tol2bus.snoop_fanout::total               6525                       # Request fanout histogram
system.tol2bus.reqLayer0.occupancy           11123500                       # Layer occupancy (ticks)
system.tol2bus.reqLayer0.utilization             15.3                       # Layer utilization (%)
system.tol2bus.respLayer0.occupancy           8496493                       # Layer occupancy (ticks)
system.tol2bus.respLayer0.utilization            11.7                       # Layer utilization (%)
system.tol2bus.respLayer1.occupancy           1299983                       # Layer occupancy (ticks)
system.tol2bus.respLayer1.utilization             1.8                       # Layer utilization (%)

---------- End Simulation Statistics   ----------
